
     RDKit          3D

  5  4  0  0  0  0  0  0  0  0999 V2000
    0.0000   -0.0000    0.0000 C   0  0  0  0  0  0  0  0  0  0  0  0
   -0.6757    0.8538   -0.0852 H   0  0  0  0  0  0  0  0  0  0  0  0
   -0.3946   -0.8360   -0.5816 H   0  0  0  0  0  0  0  0  0  0  0  0
    0.0850   -0.2938    1.0485 H   0  0  0  0  0  0  0  0  0  0  0  0
    0.9854    0.2760   -0.3817 H   0  0  0  0  0  0  0  0  0  0  0  0
  1  2  1  0
  1  3  1  0
  1  4  1  0
  1  5  1  0
M  END
